Version 4
SHEET 1 880 680
WIRE 208 160 48 160
WIRE 208 176 208 160
WIRE 208 288 208 256
WIRE 208 288 48 288
WIRE 48 160 48 288
WIRE 208 176 368 176
WIRE 368 176 368 288
WIRE 208 288 368 288
SYMBOL res 192 160 R0
SYMATTR InstName R1
SYMATTR Value 10k
SYMBOL res 192 256 R0
SYMATTR InstName R2
SYMATTR Value 10k
SYMBOL voltage 48 144 R0
WINDOW 123 0 0 Left 0
WINDOW 39 0 0 Left 0
SYMATTR InstName V1
SYMATTR Value 5
TEXT 48 320 Left 2 !.op
TEXT 48 344 Left 2 !.backanno
